.MODEL nmos_350 NMOS LEVEL=1 VTO=0.7 KP=170u GAMMA=0.5 PHI=0.7 LAMBDA=0.04 TOX=7.9n LD=0.05u CJ=1e-3 CJSW=2e-10 PB=0.9
.MODEL pmos_350 PMOS LEVEL=1 VTO=-0.7 KP=50u GAMMA=0.6 PHI=0.7 LAMBDA=0.05 TOX=7.9n LD=0.05u CJ=1e-3 CJSW=2.5e-10 PB=0.9
