Version 4.1
SHEET 1 1224 800
WIRE -96 112 -96 16
WIRE 400 208 400 192
WIRE 560 208 560 192
WIRE -192 272 -192 208
WIRE -64 272 -192 272
WIRE -192 368 -192 352
WIRE 80 368 -192 368
WIRE -64 400 -64 352
WIRE 16 400 -64 400
WIRE -192 448 -192 368
WIRE -64 448 -64 400
WIRE -192 560 -192 528
WIRE -128 560 -192 560
WIRE -64 560 -64 528
WIRE -64 560 -128 560
WIRE -128 592 -128 560
FLAG -128 592 0
FLAG -96 192 0
FLAG -96 16 VDD
FLAG -192 208 VDD
FLAG 80 368 BRIDGE_P
FLAG 16 400 BRIDGE_N
FLAG 400 112 VDIFF
FLAG 400 208 0
FLAG 560 112 VOUT
FLAG 560 208 0
SYMBOL res -208 256 R0
WINDOW 3 -198 91 Left 2
SYMATTR Value R={5k * (1 - 0.01*PRESSURE)}
SYMATTR InstName R1
SYMBOL res -80 256 R0
WINDOW 3 -55 -3 Left 2
SYMATTR Value R={5k * (1 + 0.01*PRESSURE)}
SYMATTR InstName R2
SYMBOL res -208 432 R0
WINDOW 3 -226 105 Left 2
SYMATTR Value R={5k * (1 + 0.01*PRESSURE)}
SYMATTR InstName R3
SYMBOL res -80 432 R0
SYMATTR InstName R4
SYMATTR Value R={5k * (1 - 0.01*PRESSURE)}
SYMBOL voltage -96 96 R0
SYMATTR InstName V1
SYMATTR Value 3.3
SYMBOL bv 400 96 R0
WINDOW 3 -103 141 Left 2
SYMATTR Value V=V(BRIDGE_P)-V(BRIDGE_N)
SYMATTR InstName B1
SYMBOL bv 560 96 R0
SYMATTR InstName B2
SYMATTR Value V=1.65 + 50*V(VDIFF)
TEXT 384 -32 Left 2 ;VDIFF Generator
TEXT 400 -8 Left 2 ;Ideal Gain Block
TEXT -432 648 Left 2 !.step param PRESSURE 0 1 0.5
TEXT -432 672 Left 2 !.op
