Version 4.1
SHEET 1 996 680
WIRE 528 -64 320 -64
WIRE 912 -64 608 -64
WIRE 816 0 704 0
WIRE 816 48 816 0
WIRE 176 128 96 128
WIRE 320 128 320 -64
WIRE 320 128 256 128
WIRE 384 128 320 128
WIRE 528 128 448 128
WIRE 704 128 704 80
WIRE 528 144 528 128
WIRE 672 144 528 144
WIRE 912 160 912 -64
WIRE 912 160 736 160
WIRE 928 160 912 160
WIRE 320 176 320 128
WIRE 528 176 528 144
WIRE 672 176 656 176
WIRE 96 192 96 128
WIRE 928 208 928 160
WIRE 704 224 704 192
WIRE 784 224 704 224
WIRE 656 288 656 176
WIRE 800 288 656 288
WIRE 864 288 864 224
WIRE 96 352 96 272
WIRE 320 352 320 240
WIRE 320 352 96 352
WIRE 432 352 320 352
WIRE 528 352 528 256
WIRE 528 352 432 352
WIRE 656 352 528 352
WIRE 800 352 800 288
WIRE 800 352 736 352
WIRE 928 352 928 288
WIRE 928 352 800 352
WIRE 432 384 432 352
FLAG 864 288 0
FLAG 816 48 0
FLAG 432 384 0
FLAG 912 160 Vout
FLAG 96 128 Vin
SYMBOL OpAmps\\UniversalOpAmp 704 160 M180
SYMATTR InstName U1
SYMBOL res 272 112 R90
WINDOW 0 0 56 VBottom 2
WINDOW 3 32 56 VTop 2
SYMATTR InstName R1
SYMATTR Value 6.8k
SYMBOL cap 304 176 R0
SYMATTR InstName C1
SYMATTR Value 10n
SYMBOL cap 448 112 R90
WINDOW 0 0 32 VBottom 2
WINDOW 3 32 32 VTop 2
SYMATTR InstName C2
SYMATTR Value 10n
SYMBOL res 512 160 R0
SYMATTR InstName R2
SYMATTR Value 2.4k
SYMBOL res 624 -80 R90
WINDOW 0 0 56 VBottom 2
WINDOW 3 32 56 VTop 2
SYMATTR InstName R3
SYMATTR Value 1.3k
SYMBOL res 912 192 R0
SYMATTR InstName R4
SYMATTR Value 11k
SYMBOL res 752 336 R90
WINDOW 0 0 56 VBottom 2
WINDOW 3 32 56 VTop 2
SYMATTR InstName R5
SYMATTR Value 10k
SYMBOL voltage 704 -16 R0
WINDOW 123 0 0 Left 0
WINDOW 39 0 0 Left 0
SYMATTR InstName V2
SYMATTR Value 15
SYMBOL voltage 768 224 R270
WINDOW 0 32 56 VTop 2
WINDOW 3 -32 56 VBottom 2
WINDOW 123 0 0 Left 0
WINDOW 39 0 0 Left 0
SYMATTR InstName V3
SYMATTR Value 15
SYMBOL voltage 96 176 R0
WINDOW 123 24 124 Left 2
WINDOW 39 0 0 Left 0
SYMATTR InstName V1
SYMATTR Value ""
SYMATTR Value2 AC 1
TEXT 80 416 Left 2 !.ac dec 100 100 1Meg
